<?xml version="1.0" encoding="UTF-8"?>

<!-- generated on 2024-01-04 23:34:27 by Eclipse SUMO netedit Version v1_16_0+1958-0ab20a374a1
<configuration xmlns:xsi="http://www.w3.org/2001/XMLSchema-instance" xsi:noNamespaceSchemaLocation="http://sumo.dlr.de/xsd/netconvertConfiguration.xsd">

    <input>
        <sumo-net-file value="/home/tianyu/code/uoftexp/sumosim/networks/merge_qew_metering/qew_mississauga_rd.net.xml"/>
    </input>

    <processing>
        <geometry.min-radius.fix.railways value="false"/>
        <geometry.max-grade.fix value="false"/>
        <offset.disable-normalization value="true"/>
        <lefthand value="0"/>
    </processing>

    <junctions>
        <no-turnarounds value="true"/>
        <junctions.corner-detail value="0"/>
        <junctions.limit-turn-speed value="-1.00"/>
        <rectangular-lane-cut value="0"/>
    </junctions>

    <pedestrian>
        <walkingareas value="0"/>
    </pedestrian>

</configuration>
-->

<additional xmlns:xsi="http://www.w3.org/2001/XMLSchema-instance" xsi:noNamespaceSchemaLocation="http://sumo.dlr.de/xsd/additional_file.xsd">
    <tlLogic id="9840" type="static" programID="0" offset="0">
        <phase duration="39" state="GG"/>
        <phase duration="6" state="yy"/>
        <phase duration="39" state="GG"/>
        <phase duration="6" state="yy"/>
    </tlLogic>
</additional>
