<?xml version="1.0" encoding="UTF-8"?>

<!-- generated on 2024-01-05 18:10:23 by Eclipse SUMO netedit Version v1_16_0+1958-0ab20a374a1
<configuration xmlns:xsi="http://www.w3.org/2001/XMLSchema-instance" xsi:noNamespaceSchemaLocation="http://sumo.dlr.de/xsd/netconvertConfiguration.xsd">

    <input>
        <sumo-net-file value="/home/tianyu/code/uoftexp/sumosim/networks/merge_qew_metering/qew_mississauga_rd.net.xml"/>
    </input>

    <output>
        <output-file value="/home/tianyu/code/uoftexp/sumosim/networks/merge_qew_metering/qew_mississauga_rd.net.xml"/>
    </output>

    <processing>
        <geometry.min-radius.fix.railways value="false"/>
        <geometry.max-grade.fix value="false"/>
        <offset.disable-normalization value="true"/>
        <lefthand value="0"/>
    </processing>

    <junctions>
        <no-turnarounds value="true"/>
        <junctions.corner-detail value="0"/>
        <junctions.limit-turn-speed value="-1.00"/>
        <rectangular-lane-cut value="0"/>
    </junctions>

    <pedestrian>
        <walkingareas value="0"/>
    </pedestrian>

</configuration>
-->

<net version="1.16" xmlns:xsi="http://www.w3.org/2001/XMLSchema-instance" xsi:noNamespaceSchemaLocation="http://sumo.dlr.de/xsd/net_file.xsd">

    <location netOffset="0.00,0.00" convBoundary="-199728.32,-1605738.10,21018.76,126198.34" origBoundary="605683.98,4818732.17,615438.66,4823929.49" projParameter="!"/>

    <edge id=":9580_0" function="internal">
        <lane id=":9580_0_0" index="0" speed="15.28" length="0.35" width="3.00" shape="5943.03,4047.68 5942.73,4047.49"/>
    </edge>
    <edge id=":9580_1" function="internal">
        <lane id=":9580_1_0" index="0" speed="15.28" length="0.25" width="3.00" shape="5947.59,4039.97 5947.66,4040.01 5947.71,4040.02 5947.76,4040.03 5947.82,4040.06"/>
    </edge>
    <edge id=":9587_0" function="internal">
        <lane id=":9587_0_0" index="0" speed="13.89" length="0.40" width="3.00" shape="5957.03,4056.49 5956.69,4056.28"/>
    </edge>
    <edge id=":9587_1" function="internal">
        <lane id=":9587_1_0" index="0" speed="13.89" length="0.10" width="3.00" shape="5961.49,4048.66 5961.56,4048.70"/>
    </edge>
    <edge id=":9592_0" function="internal">
        <lane id=":9592_0_0" index="0" speed="13.89" length="8.07" width="3.00" shape="6032.98,4100.57 6025.97,4096.57"/>
    </edge>
    <edge id=":9592_1" function="internal">
        <lane id=":9592_1_0" index="0" speed="13.89" length="8.78" width="3.00" shape="6030.49,4088.79 6033.01,4089.45 6035.03,4088.82 6037.05,4088.19 6039.59,4088.82"/>
        <lane id=":9592_1_1" index="1" speed="13.89" length="8.78" width="3.00" shape="6030.49,4088.79 6032.66,4089.78 6034.29,4090.13 6035.93,4090.47 6038.12,4091.43"/>
    </edge>
    <edge id=":9604_0" function="internal">
        <lane id=":9604_0_0" index="0" speed="18.05" length="48.59" width="3.00" shape="6065.58,4132.96 6078.48,4141.25 6090.75,4149.15 6100.69,4155.47 6106.62,4158.96"/>
    </edge>
    <edge id=":9604_1" function="internal">
        <lane id=":9604_1_0" index="0" speed="27.78" length="41.92" width="3.00" shape="6063.96,4135.49 6098.82,4158.62"/>
        <lane id=":9604_1_1" index="1" speed="27.78" length="41.92" width="3.00" shape="6062.35,4138.02 6097.28,4161.20"/>
        <lane id=":9604_1_2" index="2" speed="27.78" length="41.92" width="3.00" shape="6060.74,4140.55 6095.74,4163.78"/>
    </edge>
    <edge id=":9610_0" function="internal">
        <lane id=":9610_0_0" index="0" speed="13.89" length="23.53" width="3.00" shape="6282.91,4177.23 6264.41,4162.68"/>
    </edge>
    <edge id=":9610_1" function="internal">
        <lane id=":9610_1_0" index="0" speed="13.89" length="22.97" width="3.00" shape="6274.97,4150.78 6293.18,4164.69"/>
        <lane id=":9610_1_1" index="1" speed="13.89" length="22.97" width="3.00" shape="6274.97,4150.78 6279.70,4155.09 6283.13,4158.88 6286.56,4162.69 6291.28,4167.01"/>
    </edge>
    <edge id=":9610_3" function="internal">
        <lane id=":9610_3_0" index="0" speed="11.11" length="20.29" width="3.00" shape="6272.97,4153.03 6278.22,4158.80 6280.25,4164.99 6279.18,4170.87"/>
    </edge>
    <edge id=":9610_5" function="internal">
        <lane id=":9610_5_0" index="0" speed="11.11" length="8.99" width="3.00" shape="6279.18,4170.87 6279.05,4171.57 6274.63,4178.57"/>
    </edge>
    <edge id=":9610_4" function="internal">
        <lane id=":9610_4_0" index="0" speed="11.11" length="30.16" width="3.00" shape="6265.00,4170.49 6271.28,4164.70 6277.76,4162.19 6284.42,4162.96 6291.28,4167.01"/>
    </edge>
    <edge id=":9623_0" function="internal">
        <lane id=":9623_0_0" index="0" speed="8.33" length="4.28" width="3.00" shape="6248.77,4185.83 6249.64,4184.92 6250.17,4184.23 6250.60,4183.46 6251.18,4182.33"/>
    </edge>
    <edge id=":9623_1" function="internal">
        <lane id=":9623_1_0" index="0" speed="8.33" length="5.75" width="3.00" shape="6248.77,4185.83 6250.16,4184.98 6251.43,4184.86 6252.67,4184.71 6253.95,4183.76"/>
    </edge>
    <edge id=":9627_0" function="internal">
        <lane id=":9627_0_0" index="0" speed="8.33" length="9.51" width="3.00" shape="6268.33,4191.20 6266.13,4192.96 6264.72,4194.29 6263.50,4195.79 6261.85,4198.08"/>
    </edge>
    <edge id=":9627_1" function="internal">
        <lane id=":9627_1_0" index="0" speed="8.33" length="10.25" width="3.00" shape="6266.04,4188.83 6264.44,4191.32 6263.83,4193.36 6263.28,4195.45 6261.85,4198.08"/>
    </edge>
    <edge id=":9649_0" function="internal">
        <lane id=":9649_0_0" index="0" speed="18.05" length="33.82" width="3.00" shape="6262.79,4285.71 6266.21,4289.34 6271.71,4294.36 6278.82,4300.92 6287.09,4309.22"/>
    </edge>
    <edge id=":9649_1" function="internal">
        <lane id=":9649_1_0" index="0" speed="27.78" length="33.85" width="3.00" shape="6260.39,4287.89 6284.91,4311.28"/>
        <lane id=":9649_1_1" index="1" speed="27.78" length="33.85" width="3.00" shape="6258.23,4289.98 6282.73,4313.34"/>
        <lane id=":9649_1_2" index="2" speed="27.78" length="33.85" width="3.00" shape="6256.07,4292.07 6280.55,4315.40"/>
    </edge>
    <edge id=":9659_0" function="internal">
        <lane id=":9659_0_0" index="0" speed="11.11" length="17.96" width="3.00" shape="6480.34,4335.10 6462.76,4338.75"/>
    </edge>
    <edge id=":9659_1" function="internal">
        <lane id=":9659_1_0" index="0" speed="13.89" length="18.95" width="3.00" shape="6479.82,4332.15 6461.20,4335.37"/>
        <lane id=":9659_1_1" index="1" speed="13.89" length="18.95" width="3.00" shape="6479.82,4332.15 6474.24,4332.73 6470.37,4332.49 6466.49,4332.14 6460.87,4332.39"/>
    </edge>
    <edge id=":9665_0" function="internal">
        <lane id=":9665_0_0" index="0" speed="13.89" length="29.99" width="3.00" shape="6430.29,4338.84 6400.35,4340.55"/>
    </edge>
    <edge id=":9665_1" function="internal">
        <lane id=":9665_1_0" index="0" speed="13.89" length="30.88" width="3.00" shape="6429.86,4335.87 6420.17,4336.13 6412.44,4334.52 6406.69,4331.04 6402.90,4325.68"/>
    </edge>
    <edge id=":9665_2" function="internal">
        <lane id=":9665_2_0" index="0" speed="13.89" length="14.61" width="3.00" shape="6418.43,4318.77 6421.06,4323.10 6423.65,4326.09 6426.21,4327.74 6428.73,4328.05"/>
    </edge>
    <edge id=":9665_3" function="internal">
        <lane id=":9665_3_0" index="0" speed="13.89" length="14.00" width="3.00" shape="6415.68,4319.99 6418.09,4328.29 6416.22,4333.31"/>
    </edge>
    <edge id=":9665_5" function="internal">
        <lane id=":9665_5_0" index="0" speed="13.89" length="18.06" width="3.00" shape="6416.22,4333.31 6415.83,4334.39 6409.66,4338.43 6400.35,4340.55"/>
    </edge>
    <edge id=":9665_4" function="internal">
        <lane id=":9665_4_0" index="0" speed="13.89" length="29.62" width="3.00" shape="6399.38,4332.09 6428.73,4328.05"/>
    </edge>
    <edge id=":9684_0" function="internal">
        <lane id=":9684_0_0" index="0" speed="27.78" length="7.99" width="3.00" shape="6369.57,4406.62 6370.66,4408.86 6370.73,4410.71 6370.76,4412.59 6371.72,4414.92"/>
        <lane id=":9684_0_1" index="1" speed="27.78" length="7.99" width="3.00" shape="6367.17,4408.42 6371.72,4414.92"/>
        <lane id=":9684_0_2" index="2" speed="27.78" length="7.99" width="3.00" shape="6364.77,4410.21 6369.20,4416.55"/>
        <lane id=":9684_0_3" index="3" speed="27.78" length="7.99" width="3.00" shape="6362.36,4412.01 6366.69,4418.19"/>
    </edge>
    <edge id=":9694_0" function="internal">
        <lane id=":9694_0_0" index="0" speed="27.78" length="5.73" width="3.00" shape="6416.26,4483.38 6419.46,4488.08"/>
        <lane id=":9694_0_1" index="1" speed="27.78" length="5.73" width="3.00" shape="6413.74,4485.02 6416.97,4489.75"/>
        <lane id=":9694_0_2" index="2" speed="27.78" length="5.73" width="3.00" shape="6411.23,4486.65 6414.48,4491.42"/>
    </edge>
    <edge id=":9694_3" function="internal">
        <lane id=":9694_3_0" index="0" speed="18.05" length="5.68" width="3.00" shape="6418.35,4482.02 6419.34,4483.38 6420.14,4484.22 6420.94,4485.06 6421.95,4486.41"/>
    </edge>
    <edge id=":9700_0" function="internal">
        <lane id=":9700_0_0" index="0" speed="27.78" length="8.23" width="3.00" shape="6525.77,4668.62 6526.41,4671.09 6525.99,4673.00 6525.55,4674.92 6526.12,4677.43"/>
        <lane id=":9700_0_1" index="1" speed="27.78" length="8.23" width="3.00" shape="6523.10,4669.97 6526.12,4677.43"/>
        <lane id=":9700_0_2" index="2" speed="27.78" length="8.23" width="3.00" shape="6520.42,4671.33 6523.41,4678.71"/>
        <lane id=":9700_0_3" index="3" speed="27.78" length="8.23" width="3.00" shape="6517.75,4672.69 6520.70,4680.00"/>
    </edge>
    <edge id=":9706_0" function="internal">
        <lane id=":9706_0_0" index="0" speed="13.89" length="0.79" width="3.00" shape="3960.31,1626.11 3959.82,1625.49"/>
    </edge>
    <edge id=":9706_1" function="internal">
        <lane id=":9706_1_0" index="0" speed="13.89" length="0.88" width="3.00" shape="3966.73,1620.02 3967.29,1620.69"/>
    </edge>
    <edge id=":9717_0" function="internal">
        <lane id=":9717_0_0" index="0" speed="15.28" length="0.29" width="3.00" shape="4062.94,1758.57 4062.76,1758.34"/>
    </edge>
    <edge id=":9717_1" function="internal">
        <lane id=":9717_1_0" index="0" speed="15.28" length="0.32" width="3.00" shape="4069.87,1752.82 4070.07,1753.07"/>
    </edge>
    <edge id=":9722_0" function="internal">
        <lane id=":9722_0_0" index="0" speed="16.67" length="0.32" width="3.00" shape="4116.07,1827.58 4115.88,1827.33"/>
    </edge>
    <edge id=":9722_1" function="internal">
        <lane id=":9722_1_0" index="0" speed="16.67" length="0.28" width="3.00" shape="4123.01,1821.84 4123.18,1822.06"/>
    </edge>
    <edge id=":9727_0" function="internal">
        <lane id=":9727_0_0" index="0" speed="27.78" length="8.00" width="3.00" shape="4124.99,1864.70 4129.82,1871.10"/>
        <lane id=":9727_0_1" index="1" speed="27.78" length="8.00" width="3.00" shape="4122.64,1866.56 4127.45,1872.95"/>
        <lane id=":9727_0_2" index="2" speed="27.78" length="8.00" width="3.00" shape="4120.28,1868.42 4125.09,1874.80"/>
    </edge>
    <edge id=":9735_0" function="internal">
        <lane id=":9735_0_0" index="0" speed="16.67" length="0.27" width="3.00" shape="4471.86,2285.55 4471.69,2285.33"/>
    </edge>
    <edge id=":9735_1" function="internal">
        <lane id=":9735_1_0" index="0" speed="16.67" length="0.32" width="3.00" shape="4478.80,2279.81 4479.00,2280.06"/>
    </edge>
    <edge id=":9740_0" function="internal">
        <lane id=":9740_0_0" index="0" speed="16.67" length="0.29" width="3.00" shape="4651.47,2519.31 4651.30,2519.07"/>
    </edge>
    <edge id=":9740_1" function="internal">
        <lane id=":9740_1_0" index="0" speed="16.67" length="0.31" width="3.00" shape="4658.43,2513.59 4658.62,2513.84"/>
    </edge>
    <edge id=":9749_0" function="internal">
        <lane id=":9749_0_0" index="0" speed="16.67" length="0.28" width="3.00" shape="4719.19,2607.83 4719.02,2607.61"/>
    </edge>
    <edge id=":9749_1" function="internal">
        <lane id=":9749_1_0" index="0" speed="16.67" length="0.32" width="3.00" shape="4726.17,2602.14 4726.36,2602.40"/>
    </edge>
    <edge id=":9758_0" function="internal">
        <lane id=":9758_0_0" index="0" speed="16.67" length="0.23" width="3.00" shape="5284.47,3346.19 5284.32,3346.01"/>
    </edge>
    <edge id=":9758_1" function="internal">
        <lane id=":9758_1_0" index="0" speed="16.67" length="0.32" width="3.00" shape="5291.46,3340.51 5291.65,3340.77"/>
    </edge>
    <edge id=":9763_0" function="internal">
        <lane id=":9763_0_0" index="0" speed="27.78" length="0.10" width="3.00" shape="5492.31,3637.95 5492.31,3637.95"/>
        <lane id=":9763_0_1" index="1" speed="27.78" length="0.10" width="3.00" shape="5489.92,3639.78 5489.92,3639.78"/>
        <lane id=":9763_0_2" index="2" speed="27.78" length="0.10" width="3.00" shape="5487.54,3641.60 5487.54,3641.60"/>
    </edge>
    <edge id=":9766_0" function="internal">
        <lane id=":9766_0_0" index="0" speed="16.67" length="0.37" width="3.00" shape="5607.88,3759.82 5607.80,3759.75 5607.74,3759.70 5607.68,3759.66 5607.60,3759.58"/>
    </edge>
    <edge id=":9766_1" function="internal">
        <lane id=":9766_1_0" index="0" speed="16.67" length="0.21" width="3.00" shape="5614.35,3753.64 5614.50,3753.80"/>
    </edge>
    <edge id=":9770_0" function="internal">
        <lane id=":9770_0_0" index="0" speed="27.78" length="8.17" width="3.00" shape="5808.77,3967.26 5810.96,3968.42 5812.80,3968.59 5814.65,3968.76 5816.85,3969.91"/>
        <lane id=":9770_0_1" index="1" speed="27.78" length="8.17" width="3.00" shape="5808.77,3967.26 5814.99,3972.26"/>
        <lane id=":9770_0_2" index="2" speed="27.78" length="8.17" width="3.00" shape="5806.89,3969.60 5813.13,3974.62"/>
        <lane id=":9770_0_3" index="3" speed="27.78" length="8.17" width="3.00" shape="5805.02,3971.94 5811.27,3976.97"/>
    </edge>
    <edge id=":9774_0" function="internal">
        <lane id=":9774_0_0" index="0" speed="27.78" length="8.14" width="3.00" shape="3068.97,493.47 3070.78,495.15 3072.45,495.83 3074.12,496.52 3075.94,498.19"/>
        <lane id=":9774_0_1" index="1" speed="27.78" length="8.14" width="3.00" shape="3068.97,493.47 3073.56,500.03"/>
        <lane id=":9774_0_2" index="2" speed="27.78" length="8.14" width="3.00" shape="3066.59,495.30 3071.18,501.86"/>
        <lane id=":9774_0_3" index="3" speed="27.78" length="8.14" width="3.00" shape="3064.21,497.13 3068.81,503.69"/>
    </edge>
    <edge id=":9777_0" function="internal">
        <lane id=":9777_0_0" index="0" speed="27.78" length="0.30" width="3.00" shape="3254.92,730.29 3255.11,730.53"/>
        <lane id=":9777_0_1" index="1" speed="27.78" length="0.30" width="3.00" shape="3252.54,732.12 3252.73,732.36"/>
        <lane id=":9777_0_2" index="2" speed="27.78" length="0.30" width="3.00" shape="3250.17,733.95 3250.35,734.18"/>
        <lane id=":9777_0_3" index="3" speed="27.78" length="0.30" width="3.00" shape="3247.79,735.78 3247.97,736.01"/>
    </edge>
    <edge id=":9780_0" function="internal">
        <lane id=":9780_0_0" index="0" speed="23.61" length="7.97" width="3.00" shape="3298.91,787.63 3304.09,793.66"/>
        <lane id=":9780_0_1" index="1" speed="23.61" length="7.97" width="3.00" shape="3296.53,789.46 3301.74,795.52"/>
    </edge>
    <edge id=":9780_2" function="internal">
        <lane id=":9780_2_0" index="0" speed="27.78" length="8.22" width="3.00" shape="3296.53,789.46 3297.80,791.50 3298.38,793.08 3298.95,794.67 3300.20,796.72"/>
        <lane id=":9780_2_1" index="1" speed="27.78" length="8.22" width="3.00" shape="3294.15,791.29 3295.43,793.33 3296.01,794.92 3296.58,796.51 3297.84,798.58"/>
        <lane id=":9780_2_2" index="2" speed="27.78" length="8.22" width="3.00" shape="3291.77,793.11 3293.06,795.17 3293.64,796.76 3294.21,798.36 3295.48,800.43"/>
    </edge>
    <edge id=":9785_0" function="internal">
        <lane id=":9785_0_0" index="0" speed="27.78" length="0.10" width="3.00" shape="3434.27,974.91 3434.27,974.91"/>
        <lane id=":9785_0_1" index="1" speed="27.78" length="0.10" width="3.00" shape="3431.88,976.72 3431.88,976.72"/>
        <lane id=":9785_0_2" index="2" speed="27.78" length="0.10" width="3.00" shape="3429.49,978.53 3429.49,978.53"/>
    </edge>
    <edge id=":9793_0" function="internal">
        <lane id=":9793_0_0" index="0" speed="15.28" length="8.88" width="3.00" shape="3718.37,1099.36 3716.46,1097.84 3714.53,1097.31 3712.59,1097.78 3710.64,1099.24"/>
        <lane id=":9793_0_1" index="1" speed="15.28" length="11.45" width="3.00" shape="3718.37,1099.36 3715.56,1096.89 3712.97,1095.69 3710.63,1095.76 3708.52,1097.11"/>
    </edge>
    <edge id=":9793_2" function="internal">
        <lane id=":9793_2_0" index="0" speed="15.28" length="22.49" width="3.00" shape="3720.57,1097.32 3715.85,1089.35 3711.75,1077.79 3711.57,1076.85"/>
    </edge>
    <edge id=":9793_16" function="internal">
        <lane id=":9793_16_0" index="0" speed="15.28" length="17.44" width="3.00" shape="3711.57,1076.85 3709.66,1066.59 3710.96,1059.71"/>
    </edge>
    <edge id=":9793_3" function="internal">
        <lane id=":9793_3_0" index="0" speed="15.28" length="14.14" width="3.00" shape="3730.40,1079.57 3727.20,1083.28 3725.49,1086.55 3725.28,1089.38 3726.55,1091.78"/>
    </edge>
    <edge id=":9793_4" function="internal">
        <lane id=":9793_4_0" index="0" speed="16.67" length="27.92" width="3.00" shape="3730.40,1079.57 3710.64,1099.24"/>
        <lane id=":9793_4_1" index="1" speed="16.67" length="27.92" width="3.00" shape="3728.30,1077.42 3708.52,1097.11"/>
        <lane id=":9793_4_2" index="2" speed="16.67" length="27.92" width="3.00" shape="3726.20,1075.28 3706.40,1094.99"/>
        <lane id=":9793_4_3" index="3" speed="16.67" length="27.92" width="3.00" shape="3724.10,1073.14 3704.28,1092.86"/>
    </edge>
    <edge id=":9793_8" function="internal">
        <lane id=":9793_8_0" index="0" speed="18.05" length="10.88" width="3.00" shape="3697.31,1053.62 3699.97,1055.85 3702.43,1056.89 3704.70,1056.75 3706.76,1055.42"/>
    </edge>
    <edge id=":9793_9" function="internal">
        <lane id=":9793_9_0" index="0" speed="16.66" length="47.81" width="3.00" shape="3695.16,1055.71 3726.55,1091.78"/>
    </edge>
    <edge id=":9793_10" function="internal">
        <lane id=":9793_10_0" index="0" speed="18.05" length="40.40" width="3.00" shape="3693.01,1057.81 3698.28,1065.75 3703.51,1077.32 3706.84,1088.42 3706.40,1094.99"/>
        <lane id=":9793_10_1" index="1" speed="18.05" length="37.86" width="3.00" shape="3693.01,1057.81 3697.99,1065.38 3702.56,1076.14 3705.17,1086.51 3704.28,1092.86"/>
    </edge>
    <edge id=":9793_12" function="internal">
        <lane id=":9793_12_0" index="0" speed="16.67" length="28.32" width="3.00" shape="3684.97,1073.51 3691.20,1067.87 3695.84,1064.44 3700.50,1061.03 3706.76,1055.42"/>
        <lane id=":9793_12_1" index="1" speed="16.67" length="28.32" width="3.00" shape="3687.09,1075.63 3693.31,1070.00 3697.95,1066.58 3702.61,1063.16 3708.86,1057.57"/>
        <lane id=":9793_12_2" index="2" speed="16.67" length="28.32" width="3.00" shape="3689.21,1077.75 3695.42,1072.13 3700.06,1068.71 3704.71,1065.30 3710.96,1059.71"/>
    </edge>
    <edge id=":9793_15" function="internal">
        <lane id=":9793_15_0" index="0" speed="15.28" length="41.55" width="3.00" shape="3691.33,1079.88 3698.26,1075.94 3706.44,1076.61 3715.87,1081.89 3726.55,1091.78"/>
    </edge>
    <edge id=":9810_0" function="internal">
        <lane id=":9810_0_0" index="0" speed="15.28" length="29.14" width="3.00" shape="3700.28,1109.57 3693.06,1116.52 3687.06,1122.14 3682.61,1126.69 3680.03,1130.43"/>
    </edge>
    <edge id=":9810_1" function="internal">
        <lane id=":9810_1_0" index="0" speed="16.67" length="26.03" width="3.00" shape="3698.16,1107.45 3678.97,1124.99"/>
        <lane id=":9810_1_1" index="1" speed="16.67" length="26.03" width="3.00" shape="3696.04,1105.33 3676.82,1122.89"/>
        <lane id=":9810_1_2" index="2" speed="16.67" length="26.03" width="3.00" shape="3693.92,1103.20 3674.68,1120.80"/>
    </edge>
    <edge id=":9819_0" function="internal">
        <lane id=":9819_0_0" index="0" speed="27.78" length="3.75" width="3.00" shape="3602.86,1193.34 3605.36,1196.18"/>
        <lane id=":9819_0_1" index="1" speed="27.78" length="3.75" width="3.00" shape="3600.55,1195.26 3603.03,1198.07"/>
        <lane id=":9819_0_2" index="2" speed="27.78" length="3.75" width="3.00" shape="3598.24,1197.17 3600.70,1199.96"/>
    </edge>
    <edge id=":9819_3" function="internal">
        <lane id=":9819_3_0" index="0" speed="18.05" length="3.83" width="3.00" shape="3605.04,1191.53 3607.69,1194.29"/>
    </edge>
    <edge id=":9823_0" function="internal">
        <lane id=":9823_0_0" index="0" speed="12.50" length="7.59" width="3.00" shape="3550.14,1202.67 3555.67,1197.48"/>
    </edge>
    <edge id=":9823_1" function="internal">
        <lane id=":9823_1_0" index="0" speed="16.67" length="8.17" width="3.00" shape="3552.18,1204.87 3557.79,1199.52"/>
        <lane id=":9823_1_1" index="1" speed="16.67" length="8.17" width="3.00" shape="3554.22,1207.07 3559.95,1201.60"/>
        <lane id=":9823_1_2" index="2" speed="16.67" length="8.17" width="3.00" shape="3556.26,1209.27 3562.11,1203.68"/>
        <lane id=":9823_1_3" index="3" speed="16.67" length="8.17" width="3.00" shape="3556.26,1209.27 3558.43,1207.90 3560.30,1207.55 3562.16,1207.19 3564.27,1205.77"/>
    </edge>
    <edge id=":9828_0" function="internal">
        <lane id=":9828_0_0" index="0" speed="13.89" length="8.25" width="3.00" shape="3841.67,1432.82 3841.02,1430.47 3840.20,1428.96 3839.38,1427.45 3838.78,1425.09"/>
        <lane id=":9828_0_1" index="1" speed="13.89" length="8.25" width="3.00" shape="3841.67,1432.82 3841.49,1430.42 3841.68,1428.75 3841.89,1427.08 3841.75,1424.67"/>
    </edge>
    <edge id=":9828_2" function="internal">
        <lane id=":9828_2_0" index="0" speed="13.89" length="7.89" width="3.00" shape="3848.89,1423.65 3850.36,1431.40"/>
    </edge>
    <edge id=":9831_0" function="internal">
        <lane id=":9831_0_0" index="0" speed="27.78" length="8.00" width="3.00" shape="3784.86,1432.00 3789.68,1438.37"/>
        <lane id=":9831_0_1" index="1" speed="27.78" length="8.00" width="3.00" shape="3782.46,1433.80 3787.29,1440.18"/>
        <lane id=":9831_0_2" index="2" speed="27.78" length="8.00" width="3.00" shape="3780.07,1435.61 3784.90,1441.99"/>
    </edge>
    <edge id=":9840_0" function="internal">
        <lane id=":9840_0_0" index="0" speed="20.84" length="8.64" width="3.00" shape="3901.63,1575.58 3906.97,1582.38"/>
    </edge>
    <edge id=":9840_1" function="internal">
        <lane id=":9840_1_0" index="0" speed="27.78" length="8.57" width="3.00" shape="3899.43,1577.28 3904.59,1584.20"/>
        <lane id=":9840_1_1" index="1" speed="27.78" length="8.57" width="3.00" shape="3897.09,1579.15 3902.21,1586.03"/>
        <lane id=":9840_1_2" index="2" speed="27.78" length="8.57" width="3.00" shape="3894.75,1581.03 3899.83,1587.86"/>
    </edge>
    <edge id=":J0_0" function="internal">
        <lane id=":J0_0_0" index="0" speed="13.89" length="0.10" width="3.00" shape="3881.81,1549.64 3881.81,1549.64"/>
    </edge>
    <edge id=":cluster_gneJ11_gneJ14_gneJ15_0" function="internal">
        <lane id=":cluster_gneJ11_gneJ14_gneJ15_0_0" index="0" speed="11.11" length="13.60" width="3.00" shape="6308.96,4204.88 6305.93,4201.86 6303.57,4199.72 6301.37,4197.90 6298.82,4195.84"/>
    </edge>
    <edge id=":cluster_gneJ11_gneJ14_gneJ15_1" function="internal">
        <lane id=":cluster_gneJ11_gneJ14_gneJ15_1_0" index="0" speed="13.89" length="13.86" width="3.00" shape="6311.11,4202.79 6300.83,4193.51"/>
    </edge>
    <edge id=":cluster_gneJ12_gneJ13_0" function="internal">
        <lane id=":cluster_gneJ12_gneJ13_0_0" index="0" speed="13.89" length="2.30" width="3.00" shape="6318.14,4185.12 6318.71,4185.57 6319.10,4185.87 6319.49,4186.18 6320.01,4186.67"/>
        <lane id=":cluster_gneJ12_gneJ13_0_1" index="1" speed="13.89" length="2.30" width="3.00" shape="6316.24,4187.44 6316.75,4187.84 6317.10,4188.10 6317.44,4188.38 6317.91,4188.82"/>
    </edge>
    <edge id=":cluster_gneJ18_gneJ19_gneJ22_0" function="internal">
        <lane id=":cluster_gneJ18_gneJ19_gneJ22_0_0" index="0" speed="11.11" length="11.82" width="3.00" shape="6237.24,4149.30 6234.97,4146.93 6233.17,4144.92 6231.18,4143.20 6228.37,4141.65"/>
    </edge>
    <edge id=":cluster_gneJ18_gneJ19_gneJ22_1" function="internal">
        <lane id=":cluster_gneJ18_gneJ19_gneJ22_1_0" index="0" speed="13.89" length="11.89" width="3.00" shape="6239.21,4146.53 6228.37,4141.65"/>
    </edge>
    <edge id=":cluster_gneJ1_gneJ2_gneJ5_0" function="internal">
        <lane id=":cluster_gneJ1_gneJ2_gneJ5_0_0" index="0" speed="11.11" length="6.02" width="3.00" shape="6391.52,4309.28 6391.07,4307.56 6390.64,4306.41 6390.02,4305.35 6388.99,4303.89"/>
    </edge>
    <edge id=":cluster_gneJ1_gneJ2_gneJ5_1" function="internal">
        <lane id=":cluster_gneJ1_gneJ2_gneJ5_1_0" index="0" speed="13.89" length="6.48" width="3.00" shape="6394.81,4307.65 6393.93,4305.95 6393.28,4304.80 6392.55,4303.71 6391.43,4302.14"/>
    </edge>
    <edge id=":cluster_gneJ20_gneJ21_0" function="internal">
        <lane id=":cluster_gneJ20_gneJ21_0_0" index="0" speed="13.89" length="0.76" width="3.00" shape="6239.52,4131.08 6240.32,4131.43"/>
        <lane id=":cluster_gneJ20_gneJ21_0_1" index="1" speed="13.89" length="0.76" width="3.00" shape="6238.48,4133.89 6239.07,4134.16"/>
    </edge>
    <edge id=":cluster_gneJ26_gneJ27_gneJ28_0" function="internal">
        <lane id=":cluster_gneJ26_gneJ27_gneJ28_0_0" index="0" speed="11.11" length="9.79" width="3.00" shape="6373.93,4332.67 6376.84,4332.48 6378.85,4332.40 6380.81,4332.13 6383.59,4331.34"/>
    </edge>
    <edge id=":cluster_gneJ26_gneJ27_gneJ28_1" function="internal">
        <lane id=":cluster_gneJ26_gneJ27_gneJ28_1_0" index="0" speed="13.89" length="10.81" width="3.00" shape="6374.23,4335.66 6384.98,4334.49"/>
    </edge>
    <edge id=":cluster_gneJ3_gneJ4_0" function="internal">
        <lane id=":cluster_gneJ3_gneJ4_0_0" index="0" speed="13.89" length="5.71" width="3.00" shape="6403.40,4290.46 6404.38,4291.91 6404.94,4292.97 6405.43,4294.08 6406.21,4295.67"/>
        <lane id=":cluster_gneJ3_gneJ4_0_1" index="1" speed="13.89" length="5.71" width="3.00" shape="6400.98,4292.23 6401.89,4293.58 6402.40,4294.57 6402.84,4295.60 6403.56,4297.07"/>
    </edge>
    <edge id=":gneJ0_0" function="internal">
        <lane id=":gneJ0_0_0" index="0" speed="19.44" length="8.98" width="3.00" shape="3491.57,973.75 3493.73,974.91 3495.25,975.64 3496.83,976.22 3499.17,976.96"/>
        <lane id=":gneJ0_0_1" index="1" speed="19.44" length="8.98" width="3.00" shape="3490.13,976.39 3492.45,977.63 3494.08,978.41 3495.78,979.03 3498.29,979.82"/>
        <lane id=":gneJ0_0_2" index="2" speed="19.44" length="8.98" width="3.00" shape="3490.13,976.39 3492.41,978.14 3493.63,979.87 3494.92,981.43 3497.40,982.69"/>
    </edge>
    <edge id=":gneJ29_0" function="internal">
        <lane id=":gneJ29_0_0" index="0" speed="13.89" length="0.28" width="3.00" shape="6303.50,4351.69 6303.22,4351.72"/>
    </edge>

    <edge id="9575" from="source_0" to="9774" priority="-1" length="477.47" shape="2775.24,123.76 3064.25,499.64">
        <lane id="9575_0" index="0" speed="27.78" length="477.47" width="3.00" shape="2781.19,119.19 3068.97,493.47"/>
        <lane id="9575_1" index="1" speed="27.78" length="477.47" width="3.00" shape="2778.81,121.02 3066.59,495.30"/>
        <lane id="9575_2" index="2" speed="27.78" length="477.47" width="3.00" shape="2776.43,122.85 3064.21,497.13"/>
    </edge>
    <edge id="9578" from="9700" to="sink_0" priority="-1" length="463.49" shape="6517.84,4677.47 6522.18,4686.64 6640.91,4918.42 6696.47,5025.65 6728.95,5089.23">
        <lane id="9578_0" index="0" speed="27.78" length="463.49" width="3.00" shape="6526.12,4677.43 6528.91,4683.33 6647.58,4914.99 6703.14,5022.22 6735.63,5085.82"/>
        <lane id="9578_1" index="1" speed="27.78" length="463.49" width="3.00" shape="6523.41,4678.71 6526.22,4684.65 6644.91,4916.36 6700.47,5023.59 6732.96,5087.18"/>
        <lane id="9578_2" index="2" speed="27.78" length="463.49" width="3.00" shape="6520.70,4680.00 6523.53,4685.98 6642.24,4917.73 6697.80,5024.96 6730.29,5088.55"/>
    </edge>
    <edge id="9581" from="9587" to="9580" priority="-1" length="16.41" shape="5957.59,4055.07 5943.70,4046.33">
        <lane id="9581_0" index="0" speed="13.89" length="16.41" width="3.00" shape="5956.69,4056.28 5943.03,4047.68"/>
    </edge>
    <edge id="9582" from="9580" to="9766" priority="-1" length="442.34" shape="5943.67,4046.31 5920.82,4031.54 5874.06,3998.80 5823.50,3960.69 5774.76,3920.93 5740.71,3891.12 5732.70,3884.11 5726.52,3878.70 5697.83,3851.41 5688.89,3842.91 5644.58,3797.90 5609.15,3758.99">
        <lane id="9582_0" index="0" speed="16.67" length="442.34" width="3.00" shape="5942.73,4047.49 5919.98,4032.78 5873.18,4000.01 5822.57,3961.87 5773.79,3922.08 5739.72,3892.25 5731.71,3885.24 5725.51,3879.81 5696.80,3852.50 5687.84,3843.98 5643.49,3798.93 5607.88,3759.82"/>
    </edge>
    <edge id="9584" from="9766" to="9580" priority="-1" length="441.57" shape="5613.29,3754.70 5648.68,3793.57 5692.92,3838.50 5701.82,3846.96 5730.47,3874.21 5736.60,3879.58 5744.61,3886.59 5778.62,3916.37 5827.27,3956.06 5877.75,3994.10 5924.42,4026.78 5947.22,4041.52">
        <lane id="9584_0" index="0" speed="16.67" length="441.57" width="3.00" shape="5614.50,3753.80 5649.77,3792.54 5693.97,3837.43 5702.85,3845.87 5731.48,3873.10 5737.59,3878.45 5745.60,3885.46 5779.59,3915.22 5828.20,3954.88 5878.63,3992.89 5925.26,4025.54 5947.59,4039.97"/>
    </edge>