<additional>
	<inductionLoop id='250_0loop' lane='250_0' pos='80' period='200' file='data/resultsOfDetectors.xml'/> 
	<inductionLoop id='250_1loop' lane='250_1' pos='80' period='200' file='data/resultsOfDetectors.xml'/>


	<inductionLoop id='276_0loop' lane='276_0' pos='10' period='200' file='data/resultsOfDetectors.xml'/>
	<inductionLoop id='276_1loop' lane='276_1' pos='10' period='200' file='data/resultsOfDetectors.xml'/>
	<inductionLoop id='276_2loop' lane='276_2' pos='10' period='200' file='data/resultsOfDetectors.xml'/>
	
	<inductionLoop id='276_3loop' lane='276_0' pos='40' period='200' file='data/resultsOfDetectors.xml'/>
	<inductionLoop id='276_4loop' lane='276_1' pos='40' period='200' file='data/resultsOfDetectors.xml'/>
	<inductionLoop id='276_5loop' lane='276_2' pos='40' period='200' file='data/resultsOfDetectors.xml'/>



	<inductionLoop id='276_6loop' lane='276_0' pos='70' period='200' file='data/resultsOfDetectors.xml'/>
	<inductionLoop id='276_7loop' lane='276_1' pos='70' period='200' file='data/resultsOfDetectors.xml'/>
	<inductionLoop id='276_8loop' lane='276_2' pos='70' period='200' file='data/resultsOfDetectors.xml'/>



	<inductionLoop id='276_9loop' lane='276_0' pos='100' period='200' file='data/resultsOfDetectors.xml'/>
	<inductionLoop id='276_10loop' lane='276_1' pos='100' period='200' file='data/resultsOfDetectors.xml'/>
	<inductionLoop id='276_11loop' lane='276_2' pos='100' period='200' file='data/resultsOfDetectors.xml'/>



	<inductionLoop id='276_12loop' lane='276_0' pos='130' period='200' file='data/resultsOfDetectors.xml'/>
	<inductionLoop id='276_13loop' lane='276_1' pos='130' period='200' file='data/resultsOfDetectors.xml'/>
	<inductionLoop id='276_14loop' lane='276_2' pos='130' period='200' file='data/resultsOfDetectors.xml'/>



	<inductionLoop id='276_15loop' lane='276_0' pos='160' period='200' file='data/resultsOfDetectors.xml'/>
	<inductionLoop id='276_16loop' lane='276_1' pos='160' period='200' file='data/resultsOfDetectors.xml'/>
	<inductionLoop id='276_17loop' lane='276_2' pos='160' period='200' file='data/resultsOfDetectors.xml'/>



	<inductionLoop id='246_0loop' lane='246_0' pos='20' period='200' file='data/resultsOfDetectors.xml'/>
	<inductionLoop id='246_1loop' lane='246_1' pos='20' period='200' file='data/resultsOfDetectors.xml'/>



	<inductionLoop id='246_00loop' lane='246_0' pos='100' period='200' file='data/resultsOfDetectors.xml'/>
	<inductionLoop id='246_11loop' lane='246_1' pos='100' period='200' file='data/resultsOfDetectors.xml'/>


	<inductionLoop id='319_0loop' lane='319_0' pos='20' period='200' file='data/resultsOfDetectors.xml'/>
	<inductionLoop id='319_1loop' lane='319_1' pos='20' period='200' file='data/resultsOfDetectors.xml'/>


	<inductionLoop id='328_0loop' lane='328_0' pos='20' period='200' file='data/resultsOfDetectors.xml'/>
	<inductionLoop id='328_1loop' lane='328_1' pos='20' period='200' file='data/resultsOfDetectors.xml'/>

	<inductionLoop id='994_0loop' lane='994_0' pos='20' period='200' file='data/resultsOfDetectors.xml'/>

	<inductionLoop id='248_0loop' lane='248_0' pos='500' period='200' file='data/resultsOfDetectors.xml'/>


	<inductionLoop id='248_1loop' lane='248_0' pos='650' period='200' file='data/resultsOfDetectors.xml'/>

</additional>

